24
/Users/ghutchis/Dropbox/Avogadro/Examples/caffeine.g09.gz	Energy: -426926.1240495
N         -1.30061       -1.06614       -0.00243
C         -2.21458       -2.21114       -0.00303
C         -1.80183        0.18101       -0.00093
O         -3.00800        0.33494       -0.00013
N         -1.00206        1.26423        0.00017
C         -1.58891        2.60655        0.00177
C          0.37493        1.11128        0.00017
N          1.40167        1.96527        0.00107
C          2.53003        1.30235        0.00007
N          2.27930       -0.02140       -0.00143
C          3.27409       -1.09681       -0.00283
C          0.90700       -0.17211       -0.00133
C          0.03176       -1.27951        0.00227
O          0.47403       -2.41430        0.00687
H         -3.24440       -1.85388       -0.00213
H         -2.04015       -2.81468       -0.89373
H         -2.03921       -2.81647        0.88627
H         -2.67606        2.52780        0.00197
H         -1.26337        3.14422        0.89237
H         -1.26370        3.14631       -0.88763
H          3.51332        1.74888        0.00017
H          3.52126       -1.36448        1.02447
H          2.86725       -1.96750       -0.51723
H          4.17393       -0.75879       -0.51673
